Version 4
SHEET 1 1252 680
WIRE 752 -128 160 -128
WIRE 880 -128 752 -128
WIRE 944 -128 880 -128
WIRE 160 -96 160 -128
WIRE 880 -80 880 -128
WIRE 704 -48 384 -48
WIRE 944 0 944 -128
WIRE 528 48 448 48
WIRE 656 48 608 48
WIRE 880 48 880 0
WIRE 448 64 448 48
WIRE 704 80 704 32
WIRE 720 80 704 80
WIRE 752 96 752 -128
WIRE 704 112 704 80
WIRE 720 112 704 112
WIRE 800 128 800 80
WIRE 800 128 784 128
WIRE 880 128 880 48
WIRE 944 128 944 96
WIRE 1008 128 944 128
WIRE 1040 128 1008 128
WIRE 1232 128 1120 128
WIRE 656 144 656 48
WIRE 720 144 656 144
WIRE 944 160 944 128
WIRE 160 176 160 -16
WIRE 160 176 16 176
WIRE 448 176 448 144
WIRE 656 192 656 144
WIRE 16 208 16 176
WIRE 880 208 880 128
WIRE 880 272 880 208
WIRE 160 288 160 176
WIRE 656 304 656 272
WIRE 1232 352 1232 128
WIRE 656 400 656 384
WIRE 160 448 160 368
WIRE 384 448 384 -48
WIRE 384 448 160 448
WIRE 752 448 752 160
WIRE 752 448 384 448
WIRE 880 448 880 352
WIRE 880 448 752 448
WIRE 944 448 944 256
WIRE 944 448 880 448
FLAG 1008 128 load
FLAG 16 208 0
FLAG 656 400 0
FLAG 448 176 0
FLAG 1232 352 0
SYMBOL Opamps\\LT1815 752 128 R0
WINDOW 0 -27 33 Left 2
SYMATTR InstName U1
SYMBOL npn 880 0 R0
SYMATTR InstName Q3
SYMBOL pnp 880 160 R0
SYMATTR InstName Q4
SYMBOL res 1136 112 R90
WINDOW 0 0 56 VBottom 2
WINDOW 3 32 56 VTop 2
SYMATTR InstName R2
SYMATTR Value 2
SYMBOL res 816 64 R90
WINDOW 0 2 85 VBottom 2
WINDOW 3 -24 36 VTop 2
SYMATTR InstName R4
SYMATTR Value 1k
SYMBOL res 640 176 R0
SYMATTR InstName R5
SYMATTR Value 250
SYMBOL res 624 32 R90
WINDOW 0 0 56 VBottom 2
WINDOW 3 32 56 VTop 2
SYMATTR InstName R7
SYMATTR Value 1k
SYMBOL voltage 160 -112 R0
WINDOW 123 0 0 Left 0
WINDOW 39 0 0 Left 0
SYMATTR InstName V1
SYMATTR Value 6
SYMBOL voltage 160 384 R180
WINDOW 123 0 0 Left 0
WINDOW 39 0 0 Left 0
SYMATTR InstName V2
SYMATTR Value -6
SYMBOL voltage 656 288 R0
WINDOW 123 0 0 Left 0
WINDOW 39 0 0 Left 0
SYMATTR InstName V3
SYMATTR Value -2.2
SYMBOL voltage 448 48 R0
WINDOW 123 0 0 Left 0
WINDOW 39 0 0 Left 0
SYMATTR InstName V4
SYMATTR Value SINE(0 3 40)
SYMBOL res 688 -64 R0
SYMATTR InstName R1
SYMATTR Value 1k
SYMBOL res 896 112 R90
WINDOW 0 0 56 VBottom 2
WINDOW 3 32 56 VTop 2
SYMATTR InstName R3
SYMATTR Value 10
TEXT -4 458 Left 2 !.tran 0 0.1 0 0.1
