Version 4
SHEET 1 2116 824
WIRE 752 -128 160 -128
WIRE 912 -128 752 -128
WIRE 1808 -128 912 -128
WIRE 160 -96 160 -128
WIRE 912 -48 912 -128
WIRE 976 -48 912 -48
WIRE 880 -32 864 -32
WIRE 960 -16 944 -16
WIRE 1808 -16 1808 -128
WIRE 880 0 832 0
WIRE 912 16 848 16
WIRE 960 32 960 -16
WIRE 1744 32 960 32
WIRE 528 48 448 48
WIRE 704 48 608 48
WIRE 864 48 864 -32
WIRE 960 48 960 32
WIRE 960 48 864 48
WIRE 448 64 448 48
WIRE 976 64 976 -48
WIRE 976 64 912 64
WIRE 704 80 704 48
WIRE 720 80 704 80
WIRE 800 80 800 48
WIRE 864 80 864 48
WIRE 880 80 864 80
WIRE 752 96 752 -128
WIRE 960 96 960 48
WIRE 960 96 944 96
WIRE 1744 96 1744 32
WIRE 704 112 704 80
WIRE 720 112 704 112
WIRE 832 112 832 0
WIRE 880 112 832 112
WIRE 1808 112 1808 80
WIRE 1872 112 1808 112
WIRE 1904 112 1872 112
WIRE 2096 112 1984 112
WIRE 800 128 800 80
WIRE 800 128 784 128
WIRE 832 128 832 112
WIRE 832 128 800 128
WIRE 720 144 656 144
WIRE 848 144 848 16
WIRE 912 144 912 128
WIRE 912 144 848 144
WIRE 1808 144 1808 112
WIRE 976 160 976 64
WIRE 976 160 912 160
WIRE 160 176 160 -16
WIRE 160 176 16 176
WIRE 448 176 448 144
WIRE 864 176 864 80
WIRE 880 176 864 176
WIRE 960 192 960 96
WIRE 960 192 944 192
WIRE 1744 192 1744 96
WIRE 16 208 16 176
WIRE 832 208 832 128
WIRE 880 208 832 208
WIRE 848 224 848 144
WIRE 912 224 848 224
WIRE 976 272 976 160
WIRE 976 272 912 272
WIRE 160 288 160 176
WIRE 864 288 864 176
WIRE 880 288 864 288
WIRE 960 304 960 192
WIRE 960 304 944 304
WIRE 832 320 832 208
WIRE 880 320 832 320
WIRE 848 336 848 224
WIRE 912 336 848 336
WIRE 2096 336 2096 112
WIRE 976 368 976 272
WIRE 976 368 912 368
WIRE 864 384 864 288
WIRE 880 384 864 384
WIRE 656 400 656 144
WIRE 960 400 960 304
WIRE 960 400 944 400
WIRE 832 416 832 320
WIRE 880 416 832 416
WIRE 848 432 848 336
WIRE 912 432 848 432
WIRE 160 448 160 368
WIRE 752 448 752 160
WIRE 752 448 160 448
WIRE 976 480 976 368
WIRE 976 480 912 480
WIRE 864 496 864 384
WIRE 880 496 864 496
WIRE 960 512 960 400
WIRE 960 512 944 512
WIRE 832 528 832 416
WIRE 880 528 832 528
WIRE 848 544 848 432
WIRE 912 544 848 544
WIRE 976 608 976 480
WIRE 976 608 912 608
WIRE 864 624 864 496
WIRE 880 624 864 624
WIRE 960 640 960 512
WIRE 960 640 944 640
WIRE 832 656 832 528
WIRE 880 656 832 656
WIRE 848 672 848 544
WIRE 912 672 848 672
WIRE 864 704 864 624
WIRE 960 704 960 640
WIRE 960 704 864 704
WIRE 976 720 976 608
WIRE 976 720 912 720
WIRE 864 736 864 704
WIRE 880 736 864 736
WIRE 960 752 960 704
WIRE 960 752 944 752
WIRE 832 768 832 656
WIRE 880 768 832 768
WIRE 752 816 752 448
WIRE 848 816 848 672
WIRE 848 816 752 816
WIRE 912 816 912 784
WIRE 912 816 848 816
WIRE 1808 816 1808 240
WIRE 1808 816 912 816
FLAG 1872 112 load
FLAG 16 208 0
FLAG 656 400 0
FLAG 448 176 0
FLAG 2096 336 0
FLAG 1744 96 bjt_in
SYMBOL Opamps\\LT1815 752 128 R0
WINDOW 0 -27 33 Left 2
SYMATTR InstName U1
SYMBOL npn 1744 -16 R0
SYMATTR InstName Q3
SYMBOL pnp 1744 144 R0
SYMATTR InstName Q4
SYMBOL res 2000 96 R90
WINDOW 0 0 56 VBottom 2
WINDOW 3 32 56 VTop 2
SYMATTR InstName R2
SYMATTR Value 3.5
SYMBOL res 816 64 R90
WINDOW 0 2 85 VBottom 2
WINDOW 3 -24 36 VTop 2
SYMATTR InstName R4
SYMATTR Value 1.5k
SYMBOL res 624 32 R90
WINDOW 0 0 56 VBottom 2
WINDOW 3 32 56 VTop 2
SYMATTR InstName R7
SYMATTR Value 1k
SYMBOL voltage 160 -112 R0
WINDOW 123 0 0 Left 0
WINDOW 39 0 0 Left 0
SYMATTR InstName V1
SYMATTR Value 6
SYMBOL voltage 160 384 R180
WINDOW 123 0 0 Left 0
WINDOW 39 0 0 Left 0
SYMATTR InstName V2
SYMATTR Value -6
SYMBOL voltage 448 48 R0
WINDOW 123 0 0 Left 0
WINDOW 39 0 0 Left 0
SYMATTR InstName V4
SYMATTR Value SINE(0 3 40)
SYMBOL Opamps\\LT1815 912 -16 R0
WINDOW 0 -27 33 Left 2
SYMATTR InstName U2
SYMBOL Opamps\\LT1815 912 96 R0
WINDOW 0 -27 33 Left 2
SYMATTR InstName U3
SYMBOL Opamps\\LT1815 912 192 R0
WINDOW 0 -27 33 Left 2
SYMATTR InstName U4
SYMBOL Opamps\\LT1815 912 304 R0
WINDOW 0 -27 33 Left 2
SYMATTR InstName U5
SYMBOL Opamps\\LT1815 912 400 R0
WINDOW 0 -27 33 Left 2
SYMATTR InstName U6
SYMBOL Opamps\\LT1815 912 512 R0
WINDOW 0 -27 33 Left 2
SYMATTR InstName U7
SYMBOL Opamps\\LT1815 912 640 R0
WINDOW 0 -27 33 Left 2
SYMATTR InstName U8
SYMBOL Opamps\\LT1815 912 752 R0
WINDOW 0 -27 33 Left 2
SYMATTR InstName U9
TEXT -8 456 Left 2 !.tran 0 0.1 0 0.1
