Version 4
SHEET 1 2456 680
WIRE -336 -1120 -624 -1120
WIRE -112 -1120 -336 -1120
WIRE -1024 -1088 -1040 -1088
WIRE -976 -1088 -1024 -1088
WIRE -848 -1088 -976 -1088
WIRE -624 -1072 -624 -1120
WIRE -1024 -1008 -1024 -1088
WIRE -1024 -1008 -1152 -1008
WIRE -848 -1008 -848 -1088
WIRE -768 -1008 -848 -1008
WIRE -336 -1008 -336 -1056
WIRE -336 -1008 -480 -1008
WIRE -272 -1008 -336 -1008
WIRE -112 -1008 -112 -1056
WIRE -112 -1008 -192 -1008
WIRE 1360 -1008 -112 -1008
WIRE 2400 -1008 1360 -1008
WIRE -192 -928 -480 -928
WIRE -112 -928 -112 -1008
WIRE -112 -928 -192 -928
WIRE -768 -848 -848 -848
WIRE -272 -848 -480 -848
WIRE -192 -848 -192 -928
WIRE -848 -816 -848 -848
WIRE -336 -768 -336 -1008
WIRE -272 -768 -272 -848
WIRE -192 -752 -192 -848
WIRE -976 -688 -976 -1024
WIRE -976 -688 -1040 -688
WIRE -848 -688 -848 -752
WIRE -848 -688 -976 -688
WIRE -624 -688 -624 -784
WIRE -624 -688 -848 -688
WIRE -464 -688 -624 -688
WIRE -336 -688 -336 -704
WIRE -336 -688 -464 -688
WIRE -272 -688 -336 -688
WIRE -192 -688 -272 -688
WIRE 688 -576 224 -576
WIRE -1152 -544 -1152 -1008
WIRE -96 -544 -1152 -544
WIRE 656 -544 -96 -544
WIRE 976 -544 656 -544
WIRE 1024 -544 976 -544
WIRE 1824 -544 1024 -544
WIRE 2112 -544 1824 -544
WIRE 656 -528 656 -544
WIRE 656 -528 624 -528
WIRE -1040 -512 -1040 -688
WIRE -208 -512 -1040 -512
WIRE 400 -432 336 -432
WIRE 656 -432 656 -528
WIRE 656 -432 624 -432
WIRE 1056 -432 960 -432
WIRE 1024 -416 1024 -544
WIRE 2112 -416 2112 -544
WIRE -208 -400 -208 -512
WIRE -48 -400 -208 -400
WIRE 336 -400 336 -432
WIRE 336 -400 -48 -400
WIRE 960 -400 960 -432
WIRE 992 -400 960 -400
WIRE 1824 -400 1824 -544
WIRE 1056 -384 1056 -432
WIRE 1152 -384 1056 -384
WIRE 1168 -384 1152 -384
WIRE 1216 -384 1168 -384
WIRE 1776 -384 1776 -416
WIRE 1776 -384 1728 -384
WIRE 1792 -384 1776 -384
WIRE 224 -368 224 -576
WIRE 288 -368 288 -624
WIRE 288 -368 224 -368
WIRE 400 -368 288 -368
WIRE 688 -368 688 -576
WIRE 992 -368 688 -368
WIRE 1856 -368 1856 -416
WIRE 1936 -368 1856 -368
WIRE -336 -352 -416 -352
WIRE -208 -352 -208 -400
WIRE -208 -352 -336 -352
WIRE 1792 -352 1776 -352
WIRE 224 -336 224 -368
WIRE 368 -304 368 -624
WIRE 368 -304 352 -304
WIRE 400 -304 368 -304
WIRE 688 -304 688 -368
WIRE 688 -304 624 -304
WIRE -544 -288 -656 -288
WIRE -416 -288 -544 -288
WIRE 1776 -288 1776 -352
WIRE 1824 -288 1824 -336
WIRE 1824 -288 1776 -288
WIRE 1936 -288 1936 -368
WIRE 2048 -288 2048 -368
WIRE 2048 -288 1936 -288
WIRE 2112 -288 2112 -320
WIRE 2176 -288 2112 -288
WIRE 2208 -288 2176 -288
WIRE 2400 -288 2400 -1008
WIRE 2400 -288 2288 -288
WIRE 1008 -272 928 -272
WIRE -208 -256 -208 -352
WIRE 976 -256 976 -544
WIRE 2112 -256 2112 -288
WIRE -912 -240 -1008 -240
WIRE -752 -240 -832 -240
WIRE 224 -240 224 -256
WIRE 400 -240 224 -240
WIRE 928 -240 928 -272
WIRE 944 -240 928 -240
WIRE -752 -224 -752 -240
WIRE -656 -224 -656 -288
WIRE 1008 -224 1008 -272
WIRE 1120 -224 1008 -224
WIRE 1216 -224 1120 -224
WIRE -1008 -208 -1008 -240
WIRE -336 -208 -336 -352
WIRE 688 -208 688 -240
WIRE 688 -208 672 -208
WIRE 720 -208 688 -208
WIRE 944 -208 928 -208
WIRE 2048 -208 2048 -288
WIRE -752 -144 -880 -144
WIRE -528 -144 -656 -144
WIRE -336 -144 -528 -144
WIRE 352 -144 352 -304
WIRE 928 -144 928 -208
WIRE 928 -144 352 -144
WIRE 1168 -128 1168 -384
WIRE 1248 -128 1168 -128
WIRE 1424 -128 1328 -128
WIRE 1728 -128 1728 -304
WIRE 1728 -128 1424 -128
WIRE 1776 -128 1728 -128
WIRE 1936 -128 1936 -288
WIRE -1008 -96 -1008 -128
WIRE -880 -96 -880 -144
WIRE -416 -80 -416 -224
WIRE -336 -80 -416 -80
WIRE -208 -80 -208 -192
WIRE -208 -80 -336 -80
WIRE 2400 -64 2400 -288
WIRE 2400 -64 1328 -64
WIRE -208 32 -208 -80
WIRE -96 32 -96 -544
WIRE -96 32 -208 32
WIRE -48 32 -48 -400
WIRE 720 32 720 -208
WIRE 720 32 -48 32
WIRE 976 32 976 -192
WIRE 976 32 720 32
WIRE 1024 32 1024 -352
WIRE 1024 32 976 32
WIRE 1824 32 1824 -288
WIRE 1824 32 1024 32
WIRE 2112 32 2112 -160
WIRE 2112 32 1824 32
FLAG -1008 -96 COM
FLAG -880 -96 COM
FLAG -208 -352 -6V
IOPIN -208 -352 Out
FLAG -208 -80 +6V
IOPIN -208 -80 Out
FLAG 624 -528 +6V
IOPIN 624 -528 In
FLAG -1040 -1088 +6V
IOPIN -1040 -1088 In
FLAG -1056 -688 -6V
IOPIN -1056 -688 In
FLAG -464 -688 0
FLAG 1120 -224 square_wave
FLAG 1152 -384 ramp_wave
FLAG 1424 -128 sine_wave
FLAG 2176 -288 load
FLAG 1360 -1008 false_ground
FLAG -544 -288 neg_rectifier
FLAG -528 -144 pos_rectifier
SYMBOL Misc\\NE555 512 -336 R0
SYMATTR InstName U1
SYMBOL Opamps\\LT1815 1024 -384 R0
SYMATTR InstName U3
SYMBOL Opamps\\LT1815 1056 256 R0
SYMATTR InstName U5
SYMBOL Opamps\\LT1815 976 -224 R0
SYMATTR InstName U6
SYMBOL Opamps\\LT1815 1152 256 R0
SYMATTR InstName U7
SYMBOL cap 672 -304 R0
SYMATTR InstName C1
SYMATTR Value 300n
SYMBOL cap -224 -256 R0
SYMATTR InstName C2
SYMATTR Value 10mF
SYMBOL diode -432 -352 R0
SYMATTR InstName D1
SYMBOL diode -352 -208 R0
SYMATTR InstName D2
SYMBOL diode -432 -288 R0
SYMATTR InstName D3
SYMBOL diode -352 -144 R0
SYMATTR InstName D4
SYMBOL ind2 -768 -240 R0
SYMATTR InstName L1
SYMATTR Value 100µ
SYMATTR Type ind
SYMBOL ind2 -672 -240 R0
SYMATTR InstName L2
SYMATTR Value 900µ
SYMATTR Type ind
SYMBOL voltage -1008 -224 R0
WINDOW 123 0 0 Left 0
WINDOW 39 0 0 Left 0
SYMATTR InstName V1
SYMATTR Value SINE(0 120 60)
SYMBOL res 208 -352 R0
SYMATTR InstName R1
SYMATTR Value 1000k
SYMBOL res 384 -640 R90
WINDOW 0 0 56 VBottom 2
WINDOW 3 32 56 VTop 2
SYMATTR InstName R3
SYMATTR Value 5k
SYMBOL PowerProducts\\LT1576 -624 -928 R0
SYMATTR InstName U2
SYMBOL cap -992 -1088 R0
SYMATTR InstName C3
SYMATTR Value 10µ
SYMBOL cap -352 -1120 R0
SYMATTR InstName C4
SYMATTR Value 0.33µ
SYMBOL ind -176 -1024 R90
WINDOW 0 5 56 VBottom 2
WINDOW 3 32 56 VTop 2
SYMATTR InstName L3
SYMATTR Value 1µ
SYMBOL diode -96 -1056 R180
WINDOW 0 24 64 Left 2
WINDOW 3 24 0 Left 2
SYMATTR InstName D5
SYMBOL res -176 -864 R90
WINDOW 0 0 56 VBottom 2
WINDOW 3 32 56 VTop 2
SYMATTR InstName R4
SYMATTR Value 19.7k
SYMBOL res -288 -784 R0
SYMATTR InstName R5
SYMATTR Value 5000
SYMBOL cap -208 -752 R0
SYMATTR InstName C5
SYMATTR Value 100µ
SYMBOL diode -320 -704 R180
WINDOW 0 24 64 Left 2
WINDOW 3 24 0 Left 2
SYMATTR InstName D6
SYMBOL cap -864 -816 R0
SYMATTR InstName C6
SYMATTR Value 100p
SYMBOL res -816 -256 R90
WINDOW 0 0 56 VBottom 2
WINDOW 3 32 56 VTop 2
SYMATTR InstName R2
SYMATTR Value 1
SYMBOL res 1344 -144 R90
WINDOW 0 0 56 VBottom 2
WINDOW 3 42 56 VTop 2
SYMATTR InstName R6
SYMATTR Value 1k
SYMBOL cap 1312 -128 R0
SYMATTR InstName C7
SYMATTR Value 1µ
SYMBOL Opamps\\LT1815 1584 -368 R0
SYMATTR InstName U4
SYMBOL Opamps\\LT1815 1824 -368 R0
SYMATTR InstName U8
SYMBOL npn 2048 -416 R0
SYMATTR InstName Q1
SYMBOL pnp 2048 -256 R0
SYMATTR InstName Q2
SYMBOL res 2304 -304 R90
WINDOW 0 0 56 VBottom 2
WINDOW 3 32 56 VTop 2
SYMATTR InstName R7
SYMATTR Value 50
SYMBOL res 1872 -432 R90
WINDOW 0 0 56 VBottom 2
WINDOW 3 32 56 VTop 2
SYMATTR InstName R8
SYMATTR Value 10k
SYMBOL res 1744 -288 R180
WINDOW 0 36 76 Left 2
WINDOW 3 36 40 Left 2
SYMATTR InstName R9
SYMATTR Value 1k
TEXT -736 -256 Left 2 !K L1 L2 1
TEXT -1144 88 Left 2 !.tran 0 100m 0 0.001
