Version 4
SHEET 1 880 680
WIRE 304 0 80 0
WIRE 208 48 128 48
WIRE 128 128 128 48
WIRE 304 128 304 0
WIRE 304 128 128 128
FLAG 208 48 0
FLAG 80 0 0
SYMBOL Misc\\NE555 480 64 R0
SYMATTR InstName U1
SYMBOL Misc\\NE555 480 64 R0
SYMATTR InstName U2
